*Heading
** Job name: gear_179_rP_28,26_rG_40,22_D_0,04_res Model name: gear_179_rP_28,26_rG_40,22_D_0,04
** Generated by: Abaqus/CAE 2019
*Preprint, echo=NO, model=NO, history=NO, contact=NO
**
** PARTS
**
*Part, name=Gear
*Node
      1,  -2.84816408,   2.10628057
      2,  -2.99721837,  0.111842714
      3,   2.99721837,  0.111842714
      4,   2.84816408,   2.10628057
      5,   40.2164192,   40.2164192
      6,   38.2164192,   40.2164192
      7,  -38.2164192,   40.2164192
      8,  -40.2164192,   40.2164192
      9,  -2.85561681,    2.0065589
     10,  -2.86306953,   1.90683687
     11,  -2.87052226,   1.80711496
     12,  -2.87797499,   1.70739305
     13,  -2.88542771,   1.60767114
     14,  -2.89288044,   1.50794923
     15,  -2.90033317,   1.40822744
     16,  -2.90778589,   1.30850554
     17,  -2.91523862,   1.20878363
     18,  -2.92269135,   1.10906172
     19,  -2.93014407,   1.00933981
     20,  -2.93759656,  0.909617901
** ... 31513 like lines cut
*Element, type=CPS8
   1,     1,     9,   850,   284, 10609, 10610, 10611, 10612
   2,     9,    10,   851,   850, 10613, 10614, 10615, 10610
   3,    10,    11,   852,   851, 10616, 10617, 10618, 10614
   4,    11,    12,   853,   852, 10619, 10620, 10621, 10617
   5,    12,    13,   854,   853, 10622, 10623, 10624, 10620
   6,    13,    14,   855,   854, 10625, 10626, 10627, 10623
   7,    14,    15,   856,   855, 10628, 10629, 10630, 10626
   8,    15,    16,   857,   856, 10631, 10632, 10633, 10629
   9,    16,    17,   858,   857, 10634, 10635, 10636, 10632
  10,    17,    18,   859,   858, 10637, 10638, 10639, 10635
  11,    18,    19,   860,   859, 10640, 10641, 10642, 10638
  12,    19,    20,   861,   860, 10643, 10644, 10645, 10641
  13,    20,    21,   862,   861, 10646, 10647, 10648, 10644
  14,    21,    22,   863,   862, 10649, 10650, 10651, 10647
  15,    22,    23,   864,   863, 10652, 10653, 10654, 10650
  16,    23,    24,   865,   864, 10655, 10656, 10657, 10653
  17,    24,    25,   866,   865, 10658, 10659, 10660, 10656
  18,    25,    26,   867,   866, 10661, 10662, 10663, 10659
  19,    26,    27,   868,   867, 10664, 10665, 10666, 10662
  20,    27,     2,    28,   868, 10667, 10668, 10669, 10665
** ... 10298 like lines cut
*Nset, nset=gear_set, generate
     1,  31533,      1
*Elset, elset=gear_set, generate
     1,  10318,      1
*Nset, nset=gear_edge
     2,     3,    28,    29,    30,    31,    32,    33,    34,    35,    36,    37,    38,    39,    40,    41
    42,    43,    44,    45,    46,    47,    48,    49,    50,    51,    52,    53,    54,    55,    56,    57
    58,    59,    60,    61,    62,    63,    64,    65,    66,    67,    68,    69,    70,    71,    72,    73
    74,    75,    76,    77,    78,    79,    80,    81,    82,    83,    84,    85,    86,    87,    88,    89
    90,    91,    92,    93,    94,    95,    96,    97,    98,    99,   100,   101,   102,   103,   104,   105
   106,   107,   108,   109,   110,   111,   112,   113,   114,   115,   116,   117,   118,   119,   120,   121
   122,   123,   124,   125,   126,   127,   128,   129,   130,   131,   132,   133,   134,   135,   136,   137
   138,   139,   140,   141,   142,   143,   144,   145,   146, 10668, 10709, 10750, 10791, 10832, 10873, 10914
 10955, 10996, 11037, 11078, 11119, 11160, 11201, 11242, 11283, 11324, 11365, 11406, 11447, 11488, 11529, 11570
 11611, 11652, 11693, 11734, 11775, 11816, 11857, 11898, 11939, 11980, 12021, 12062, 12103, 12144, 12185, 12226
 12267, 12308, 12349, 12390, 12431, 12472, 12513, 12554, 12595, 12636, 12677, 12718, 12759, 12800, 12841, 12882
 12923, 12964, 13005, 13046, 13087, 13128, 13169, 13210, 13251, 13292, 13333, 13374, 13415, 13456, 13497, 13538
 13579, 13620, 13661, 13702, 13743, 13784, 13825, 13866, 13907, 13948, 13989, 14030, 14071, 14112, 14153, 14194
 14235, 14276, 14317, 14358, 14399, 14440, 14481, 14522, 14563, 14604, 14645, 14686, 14727, 14768, 14809, 14850
 14891, 14932, 14973, 15014, 15055, 15096, 15137, 15178, 15219, 15260, 15301, 15342, 15383, 15424, 15465, 15506
 15547,
*Elset, elset=gear_edge, generate
   20,  2400,    20
** Section: Section-1
*Solid Section, elset=gear_set, material=plexiglass
,
*End Part
**  
*Part, name=Pinion
*Node
      1,  -2.99436665, -0.159111023
      2,  -2.78241801,  -2.14784884
      3,   2.78241801,  -2.14784884
      4,   2.99436665, -0.159111023
      5,   26.2555809,  -28.2555809
      6,   28.2555809,  -28.2555809
      7,  -28.2555809,  -28.2555809
      8,  -26.2555809,  -28.2555809
      9,  -2.98376942, -0.258547902
     10,  -2.97317195, -0.357984781
     11,  -2.96257448,  -0.45742169
     12,  -2.95197701,  -0.55685854
     13,  -2.94137955, -0.656295478
     14,  -2.93078208, -0.755732358
     15,  -2.92018461, -0.855169237
     16,  -2.90958738, -0.954606116
     17,  -2.89898992,  -1.05404305
     18,  -2.88839245,  -1.15347993
     19,  -2.87779498,  -1.25291681
     20,  -2.86719751,  -1.35235369
** ... 21905 like lines cut
*Element, type=CPS8
   1,     1,     9,   675,   284,  7383,  7384,  7385,  7386
   2,     9,    10,   676,   675,  7387,  7388,  7389,  7384
   3,    10,    11,   677,   676,  7390,  7391,  7392,  7388
   4,    11,    12,   678,   677,  7393,  7394,  7395,  7391
   5,    12,    13,   679,   678,  7396,  7397,  7398,  7394
   6,    13,    14,   680,   679,  7399,  7400,  7401,  7397
   7,    14,    15,   681,   680,  7402,  7403,  7404,  7400
   8,    15,    16,   682,   681,  7405,  7406,  7407,  7403
   9,    16,    17,   683,   682,  7408,  7409,  7410,  7406
  10,    17,    18,   684,   683,  7411,  7412,  7413,  7409
  11,    18,    19,   685,   684,  7414,  7415,  7416,  7412
  12,    19,    20,   686,   685,  7417,  7418,  7419,  7415
  13,    20,    21,   687,   686,  7420,  7421,  7422,  7418
  14,    21,    22,   688,   687,  7423,  7424,  7425,  7421
  15,    22,    23,   689,   688,  7426,  7427,  7428,  7424
  16,    23,    24,   690,   689,  7429,  7430,  7431,  7427
  17,    24,    25,   691,   690,  7432,  7433,  7434,  7430
  18,    25,    26,   692,   691,  7435,  7436,  7437,  7433
  19,    26,    27,   693,   692,  7438,  7439,  7440,  7436
  20,    27,     2,    28,   693,  7441,  7442,  7443,  7439
** ... 7142 like lines cut
*Nset, nset=pinion_set, generate
     1,  21925,      1
*Elset, elset=pinion_set, generate
    1,  7162,     1
*Nset, nset=pinion_edge
     1,     4,   166,   167,   168,   169,   170,   171,   172,   173,   174,   175,   176,   177,   178,   179
   180,   181,   182,   183,   184,   185,   186,   187,   188,   189,   190,   191,   192,   193,   194,   195
   196,   197,   198,   199,   200,   201,   202,   203,   204,   205,   206,   207,   208,   209,   210,   211
   212,   213,   214,   215,   216,   217,   218,   219,   220,   221,   222,   223,   224,   225,   226,   227
   228,   229,   230,   231,   232,   233,   234,   235,   236,   237,   238,   239,   240,   241,   242,   243
   244,   245,   246,   247,   248,   249,   250,   251,   252,   253,   254,   255,   256,   257,   258,   259
   260,   261,   262,   263,   264,   265,   266,   267,   268,   269,   270,   271,   272,   273,   274,   275
   276,   277,   278,   279,   280,   281,   282,   283,   284,  7386,  7446,  7487,  7528,  7569,  7610,  7651
  7692,  7733,  7774,  7815,  7856,  7897,  7938,  7979,  8020,  8061,  8102,  8143,  8184,  8225,  8266,  8307
  8348,  8389,  8430,  8471,  8512,  8553,  8594,  8635,  8676,  8717,  8758,  8799,  8840,  8881,  8922,  8963
  9004,  9045,  9086,  9127,  9168,  9209,  9250,  9291,  9332,  9373,  9414,  9455,  9496,  9537,  9578,  9619
  9660,  9701,  9742,  9783,  9824,  9865,  9906,  9947,  9988, 10029, 10070, 10111, 10152, 10193, 10234, 10275
 10316, 10357, 10398, 10439, 10480, 10521, 10562, 10603, 10644, 10685, 10726, 10767, 10808, 10849, 10890, 10931
 10972, 11013, 11054, 11095, 11136, 11177, 11218, 11259, 11300, 11341, 11382, 11423, 11464, 11505, 11546, 11587
 11628, 11669, 11710, 11751, 11792, 11833, 11874, 11915, 11956, 11997, 12038, 12079, 12120, 12161, 12202, 12243
 12284,
*Elset, elset=pinion_edge, generate
    1,  2381,    20
** Section: Section-1
*Solid Section, elset=pinion_set, material=plexiglass
,
*End Part
**  
**
** ASSEMBLY
**
*Assembly, name=Assembly
**  
*Instance, name=Gear-1, part=Gear
*End Instance
**  
*Instance, name=Pinion-1, part=Pinion
*End Instance
**  
*Node
      1,           0.,  -33.2555809,           0.
*Node
      2,           0.,   45.2164192,           0.
*Nset, nset=_PickedSet9, internal
 1,
*Nset, nset=_PickedSet11, internal
 2,
*Nset, nset=_PickedSet14, internal
 1,
*Nset, nset=_PickedSet15, internal, instance=Pinion-1
     5,     6,     7,     8,   325,   326,   585,   623,   624,   625,   626,   627,   628,   629,   630,   631
   632,   633,   634,   635,   636,   637,   638,   639,   640,   641,   642,   643,   644,   645,   646,   647
   648,   649,   650,   651,   652,   653,   654,   655,   656,   657,   658,   659,   660,   661,   662,   663
   664,   665,   666,   667,   668,   669,   670,   671,   672,   673,   674, 12511, 12513, 12639, 13837, 13840
 14947, 14951, 14954, 14959, 14962, 14965, 14968, 14972, 14975, 14979, 14982, 14985, 14989, 14992, 14996, 15001
 15003, 15006, 15008, 15013, 15017, 15018, 15024, 15025, 15030, 15032, 15037, 15040, 15043, 15049, 15051, 15056
 15058, 15061, 15066, 15068, 15072, 15073, 16141, 16142, 16144, 16146, 16148, 16149, 16152, 16154, 16155, 17778
 17780, 17781, 17782, 17784, 17785
*Elset, elset=_PickedSet15, internal, instance=Pinion-1
 2451, 2452, 2496, 3081, 3082, 3637, 3638, 3639, 3640, 3641, 3642, 3643, 3644, 3645, 3646, 3647
 3648, 3649, 3650, 3651, 3652, 3653, 3654, 3655, 3656, 3657, 3658, 3659, 3660, 3661, 3662, 3663
 3664, 3665, 3666, 3667, 3668, 3669, 3670, 3671, 3672, 3673, 3674, 3984, 3985, 3986, 3987, 3988
 3989, 3990, 3991, 3992, 4583, 4584, 4585, 4586, 4587, 4588
*Nset, nset=_PickedSet16, internal
 2,
*Nset, nset=_PickedSet17, internal
 2,
*Elset, elset=_m_Surf_pinion_S4, internal, instance=Pinion-1, generate
    1,  2381,    20
*Surface, type=ELEMENT, name=m_Surf_pinion
_m_Surf_pinion_S4, S4
*Elset, elset=_s_Surf_gear_S2, internal, instance=Gear-1, generate
   20,  2400,    20
*Surface, type=ELEMENT, name=s_Surf_gear
_s_Surf_gear_S2, S2
*Elset, elset=__PickedSurf8_S3, internal, instance=Pinion-1
 2451, 3640, 3657, 3659, 3990, 3991
*Elset, elset=__PickedSurf8_S1, internal, instance=Pinion-1
 2452, 2496, 3637, 3639, 3655, 3658, 3660, 3662, 3988, 3989
*Elset, elset=__PickedSurf8_S2, internal, instance=Pinion-1
 3081, 3082, 3638, 3641, 3642, 3643, 3644, 3645, 3646, 3647, 3648, 3649, 3650, 3651, 3653, 3654
 3656, 3661, 3663, 3664, 3665, 3667, 3669, 3670, 3672, 3674, 3985, 3986, 3987, 3992, 4583, 4585
 4586, 4588
*Elset, elset=__PickedSurf8_S4, internal, instance=Pinion-1
 3652, 3666, 3668, 3671, 3673, 3984, 4584, 4587
*Surface, type=ELEMENT, name=_PickedSurf8, internal
__PickedSurf8_S3, S3
__PickedSurf8_S1, S1
__PickedSurf8_S2, S2
__PickedSurf8_S4, S4
*Elset, elset=__PickedSurf10_S2, internal, instance=Gear-1
 2465, 4129, 4339, 4473, 4474, 4477, 4509, 4511, 4540, 4546, 4583, 4633, 4698, 4738, 4824, 4882
 4915, 4923
*Elset, elset=__PickedSurf10_S4, internal, instance=Gear-1
 2616, 3316, 4467, 4471, 4475, 4545
*Elset, elset=__PickedSurf10_S3, internal, instance=Gear-1
 3313, 4128, 4130, 4307, 4338, 4472, 4478, 4520, 4543, 4655, 4757, 4838, 4852, 4862, 4890, 4897
 4904, 4919, 7349
*Elset, elset=__PickedSurf10_S1, internal, instance=Gear-1
 4078, 4131, 4308, 4336, 4337, 4464, 4465, 4476, 4510, 4521, 4530, 4531, 4535, 4539, 4542, 4544
 4582, 4609, 4632, 4656, 4697, 4717, 4737, 4758, 4790, 4807, 4823, 4839, 4863, 4881, 4891, 4905
 4914, 4920, 4958, 6034, 6035
*Surface, type=ELEMENT, name=_PickedSurf10, internal
__PickedSurf10_S2, S2
__PickedSurf10_S4, S4
__PickedSurf10_S3, S3
__PickedSurf10_S1, S1
** Constraint: Gear_coupling
*Coupling, constraint name=Gear_coupling, ref node=_PickedSet11, surface=_PickedSurf10
*Kinematic
2, 2
** Constraint: Pinion_coupling
*Coupling, constraint name=Pinion_coupling, ref node=_PickedSet9, surface=_PickedSurf8
*Kinematic
*End Assembly
** 
** MATERIALS
** 
*Material, name=plexiglass
*Elastic
3200., 0.4
** 
** INTERACTION PROPERTIES
** 
*Surface Interaction, name=IntProp-1
1.,
*Friction
0.,
*Surface Behavior, augmented Lagrange
** 
** BOUNDARY CONDITIONS
** 
** Name: Encastre_pinion Type: Symmetry/Antisymmetry/Encastre
*Boundary
_PickedSet14, ENCASTRE
** Name: y_disp_pinion Type: Displacement/Rotation
*Boundary
_PickedSet15, 2, 2
** Name: y_free_gear Type: Displacement/Rotation
*Boundary
_PickedSet16, 1, 1
_PickedSet16, 6, 6
** 
** INTERACTIONS
** 
** Interaction: cylinder_contact
*Contact Pair, interaction=IntProp-1, small sliding, type=SURFACE TO SURFACE
s_Surf_gear, m_Surf_pinion
** ----------------------------------------------------------------
** 
** STEP: load
** 
*Step, name=load, nlgeom=YES
*Static, stabilize, allsdtol=0.05, continue=YES
0.01, 1., 1e-05, 0.1
** 
** BOUNDARY CONDITIONS
** 
** Name: Displacement Type: Displacement/Rotation
*Boundary
_PickedSet17, 2, 2, -0.0366589
** 
** OUTPUT REQUESTS
** 
*Restart, write, frequency=0
** 
** FIELD OUTPUT: F-Output-1
** 
*Output, field
*Node Output
CF, RF, U
*Element Output, directions=YES
LE, PE, PEEQ, PEMAG, S
*Contact Output
CDISP, CDSTRESS, CFORCE, CSTATUS, CSTRESS
** 
** HISTORY OUTPUT: H-Output-1
** 
*Output, history, variable=PRESELECT
*End Step
