*Heading
** Job name: gear_179_rP_26,6_rG_41,87_D_0,04_res Model name: gear_179_rP_26,6_rG_41,87_D_0,04
** Generated by: Abaqus/CAE 2019
*Preprint, echo=NO, model=NO, history=NO, contact=NO
**
** PARTS
**
*Part, name=Gear
*Node
      1,  -2.85424685,   2.10230374
      2,  -2.99743342,  0.107435971
      3,   2.99743342,  0.107435971
      4,   2.85424685,   2.10230374
      5,   41.8674927,   41.8674927
      6,   39.8674927,   41.8674927
      7,  -39.8674927,   41.8674927
      8,  -41.8674927,   41.8674927
      9,  -2.86106515,   2.00731015
     10,  -2.86788368,   1.91231632
     11,  -2.87470198,   1.81732261
     12,  -2.88152051,    1.7223289
     13,   -2.8883388,   1.62733531
     14,  -2.89515734,    1.5323416
     15,  -2.90197563,   1.43734789
     16,  -2.90879416,   1.34235418
     17,  -2.91561246,   1.24736047
     18,  -2.92243099,   1.15236676
     19,  -2.92924929,   1.05737305
     20,  -2.93606782,  0.962379336
** ... 32976 like lines cut
*Element, type=CPS8
   1,     1,     9,   878,   286, 11100, 11101, 11102, 11103
   2,     9,    10,   879,   878, 11104, 11105, 11106, 11101
   3,    10,    11,   880,   879, 11107, 11108, 11109, 11105
   4,    11,    12,   881,   880, 11110, 11111, 11112, 11108
   5,    12,    13,   882,   881, 11113, 11114, 11115, 11111
   6,    13,    14,   883,   882, 11116, 11117, 11118, 11114
   7,    14,    15,   884,   883, 11119, 11120, 11121, 11117
   8,    15,    16,   885,   884, 11122, 11123, 11124, 11120
   9,    16,    17,   886,   885, 11125, 11126, 11127, 11123
  10,    17,    18,   887,   886, 11128, 11129, 11130, 11126
  11,    18,    19,   888,   887, 11131, 11132, 11133, 11129
  12,    19,    20,   889,   888, 11134, 11135, 11136, 11132
  13,    20,    21,   890,   889, 11137, 11138, 11139, 11135
  14,    21,    22,   891,   890, 11140, 11141, 11142, 11138
  15,    22,    23,   892,   891, 11143, 11144, 11145, 11141
  16,    23,    24,   893,   892, 11146, 11147, 11148, 11144
  17,    24,    25,   894,   893, 11149, 11150, 11151, 11147
  18,    25,    26,   895,   894, 11152, 11153, 11154, 11150
  19,    26,    27,   896,   895, 11155, 11156, 11157, 11153
  20,    27,    28,   897,   896, 11158, 11159, 11160, 11156
** ... 10779 like lines cut
*Nset, nset=gear_set, generate
     1,  32996,      1
*Elset, elset=gear_set, generate
     1,  10799,      1
*Nset, nset=gear_edge
     2,     3,    29,    30,    31,    32,    33,    34,    35,    36,    37,    38,    39,    40,    41,    42
    43,    44,    45,    46,    47,    48,    49,    50,    51,    52,    53,    54,    55,    56,    57,    58
    59,    60,    61,    62,    63,    64,    65,    66,    67,    68,    69,    70,    71,    72,    73,    74
    75,    76,    77,    78,    79,    80,    81,    82,    83,    84,    85,    86,    87,    88,    89,    90
    91,    92,    93,    94,    95,    96,    97,    98,    99,   100,   101,   102,   103,   104,   105,   106
   107,   108,   109,   110,   111,   112,   113,   114,   115,   116,   117,   118,   119,   120,   121,   122
   123,   124,   125,   126,   127,   128,   129,   130,   131,   132,   133,   134,   135,   136,   137,   138
   139,   140,   141,   142,   143,   144,   145,   146,   147, 11162, 11205, 11248, 11291, 11334, 11377, 11420
 11463, 11506, 11549, 11592, 11635, 11678, 11721, 11764, 11807, 11850, 11893, 11936, 11979, 12022, 12065, 12108
 12151, 12194, 12237, 12280, 12323, 12366, 12409, 12452, 12495, 12538, 12581, 12624, 12667, 12710, 12753, 12796
 12839, 12882, 12925, 12968, 13011, 13054, 13097, 13140, 13183, 13226, 13269, 13312, 13355, 13398, 13441, 13484
 13527, 13570, 13613, 13656, 13699, 13742, 13785, 13828, 13871, 13914, 13957, 14000, 14043, 14086, 14129, 14172
 14215, 14258, 14301, 14344, 14387, 14430, 14473, 14516, 14559, 14602, 14645, 14688, 14731, 14774, 14817, 14860
 14903, 14946, 14989, 15032, 15075, 15118, 15161, 15204, 15247, 15290, 15333, 15376, 15419, 15462, 15505, 15548
 15591, 15634, 15677, 15720, 15763, 15806, 15849, 15892, 15935, 15978, 16021, 16064, 16107, 16150, 16193, 16236
 16279,
*Elset, elset=gear_edge, generate
   21,  2520,    21
** Section: Section-1
*Solid Section, elset=gear_set, material=plexiglass
,
*End Part
**  
*Part, name=Pinion
*Node
      1,  -2.99364638, -0.168965131
      2,  -2.76859832,  -2.15626311
      3,   2.76859832,  -2.15626311
      4,   2.99364638, -0.168965131
      5,   24.6045055,  -26.6045055
      6,   26.6045055,  -26.6045055
      7,  -26.6045055,  -26.6045055
      8,  -24.6045055,  -26.6045055
      9,  -2.98239398, -0.268330038
     10,  -2.97114158, -0.367694944
     11,  -2.95988917, -0.467059821
     12,  -2.94863677, -0.566424727
     13,  -2.93738437, -0.665789604
     14,  -2.92613196, -0.765154541
     15,  -2.91487956, -0.864519417
     16,  -2.90362716, -0.963884354
     17,  -2.89237475,  -1.06324923
     18,  -2.88112235,  -1.16261411
     19,  -2.86986995,  -1.26197898
     20,  -2.85861754,  -1.36134398
** ... 20913 like lines cut
*Element, type=CPS8
   1,     1,     9,   651,   284,  7049,  7050,  7051,  7052
   2,     9,    10,   652,   651,  7053,  7054,  7055,  7050
   3,    10,    11,   653,   652,  7056,  7057,  7058,  7054
   4,    11,    12,   654,   653,  7059,  7060,  7061,  7057
   5,    12,    13,   655,   654,  7062,  7063,  7064,  7060
   6,    13,    14,   656,   655,  7065,  7066,  7067,  7063
   7,    14,    15,   657,   656,  7068,  7069,  7070,  7066
   8,    15,    16,   658,   657,  7071,  7072,  7073,  7069
   9,    16,    17,   659,   658,  7074,  7075,  7076,  7072
  10,    17,    18,   660,   659,  7077,  7078,  7079,  7075
  11,    18,    19,   661,   660,  7080,  7081,  7082,  7078
  12,    19,    20,   662,   661,  7083,  7084,  7085,  7081
  13,    20,    21,   663,   662,  7086,  7087,  7088,  7084
  14,    21,    22,   664,   663,  7089,  7090,  7091,  7087
  15,    22,    23,   665,   664,  7092,  7093,  7094,  7090
  16,    23,    24,   666,   665,  7095,  7096,  7097,  7093
  17,    24,    25,   667,   666,  7098,  7099,  7100,  7096
  18,    25,    26,   668,   667,  7101,  7102,  7103,  7099
  19,    26,    27,   669,   668,  7104,  7105,  7106,  7102
  20,    27,     2,    28,   669,  7107,  7108,  7109,  7105
** ... 6818 like lines cut
*Nset, nset=pinion_set, generate
     1,  20933,      1
*Elset, elset=pinion_set, generate
    1,  6838,     1
*Nset, nset=pinion_edge
     1,     4,   166,   167,   168,   169,   170,   171,   172,   173,   174,   175,   176,   177,   178,   179
   180,   181,   182,   183,   184,   185,   186,   187,   188,   189,   190,   191,   192,   193,   194,   195
   196,   197,   198,   199,   200,   201,   202,   203,   204,   205,   206,   207,   208,   209,   210,   211
   212,   213,   214,   215,   216,   217,   218,   219,   220,   221,   222,   223,   224,   225,   226,   227
   228,   229,   230,   231,   232,   233,   234,   235,   236,   237,   238,   239,   240,   241,   242,   243
   244,   245,   246,   247,   248,   249,   250,   251,   252,   253,   254,   255,   256,   257,   258,   259
   260,   261,   262,   263,   264,   265,   266,   267,   268,   269,   270,   271,   272,   273,   274,   275
   276,   277,   278,   279,   280,   281,   282,   283,   284,  7052,  7112,  7153,  7194,  7235,  7276,  7317
  7358,  7399,  7440,  7481,  7522,  7563,  7604,  7645,  7686,  7727,  7768,  7809,  7850,  7891,  7932,  7973
  8014,  8055,  8096,  8137,  8178,  8219,  8260,  8301,  8342,  8383,  8424,  8465,  8506,  8547,  8588,  8629
  8670,  8711,  8752,  8793,  8834,  8875,  8916,  8957,  8998,  9039,  9080,  9121,  9162,  9203,  9244,  9285
  9326,  9367,  9408,  9449,  9490,  9531,  9572,  9613,  9654,  9695,  9736,  9777,  9818,  9859,  9900,  9941
  9982, 10023, 10064, 10105, 10146, 10187, 10228, 10269, 10310, 10351, 10392, 10433, 10474, 10515, 10556, 10597
 10638, 10679, 10720, 10761, 10802, 10843, 10884, 10925, 10966, 11007, 11048, 11089, 11130, 11171, 11212, 11253
 11294, 11335, 11376, 11417, 11458, 11499, 11540, 11581, 11622, 11663, 11704, 11745, 11786, 11827, 11868, 11909
 11950,
*Elset, elset=pinion_edge, generate
    1,  2381,    20
** Section: Section-1
*Solid Section, elset=pinion_set, material=plexiglass
,
*End Part
**  
**
** ASSEMBLY
**
*Assembly, name=Assembly
**  
*Instance, name=Gear-1, part=Gear
*End Instance
**  
*Instance, name=Pinion-1, part=Pinion
*End Instance
**  
*Node
      1,           0.,  -31.6045055,           0.
*Node
      2,           0.,   46.8674927,           0.
*Nset, nset=_PickedSet9, internal
 1,
*Nset, nset=_PickedSet11, internal
 2,
*Nset, nset=_PickedSet14, internal
 1,
*Nset, nset=_PickedSet15, internal, instance=Pinion-1
     5,     6,     7,     8,   323,   324,   567,   603,   604,   605,   606,   607,   608,   609,   610,   611
   612,   613,   614,   615,   616,   617,   618,   619,   620,   621,   622,   623,   624,   625,   626,   627
   628,   629,   630,   631,   632,   633,   634,   635,   636,   637,   638,   639,   640,   641,   642,   643
   644,   645,   646,   647,   648,   649,   650, 12073, 12292, 12321, 13418, 13420, 14425, 14429, 14432, 14436
 14439, 14443, 14448, 14450, 14453, 14456, 14459, 14463, 14465, 14470, 14477, 14481, 14483, 14488, 14491, 14494
 14500, 14503, 14505, 14510, 14512, 14517, 14520, 14522, 14527, 14529, 14534, 14537, 14539, 14543, 14544, 15362
 15364, 15366, 15368, 15370, 15372, 15375, 15376, 16983, 16985, 16987, 16988, 16989, 16990
*Elset, elset=_PickedSet15, internal, instance=Pinion-1
 2422, 2490, 2501, 3040, 3041, 3548, 3549, 3550, 3551, 3552, 3553, 3554, 3555, 3556, 3557, 3558
 3559, 3560, 3561, 3563, 3564, 3565, 3566, 3567, 3568, 3569, 3570, 3571, 3572, 3573, 3574, 3575
 3576, 3577, 3578, 3579, 3580, 3581, 3582, 3583, 3823, 3824, 3825, 3826, 3827, 3828, 3829, 3830
 4407, 4408, 4409, 4410, 4411, 4412
*Nset, nset=_PickedSet16, internal
 2,
*Nset, nset=_PickedSet17, internal
 2,
*Elset, elset=_m_Surf_pinion_S4, internal, instance=Pinion-1, generate
    1,  2381,    20
*Surface, type=ELEMENT, name=m_Surf_pinion
_m_Surf_pinion_S4, S4
*Elset, elset=_s_Surf_gear_S2, internal, instance=Gear-1, generate
   21,  2520,    21
*Surface, type=ELEMENT, name=s_Surf_gear
_s_Surf_gear_S2, S2
*Elset, elset=__PickedSurf8_S2, internal, instance=Pinion-1
 2422, 3549, 3551, 3552, 3553, 3555, 3556, 3557, 3559, 3561, 3563, 3564, 3566, 3567, 3568, 3571
 3573, 3576, 3578, 3581, 3583, 3823, 3824, 3825, 3826, 3827, 3828, 3830, 4407, 4408, 4409, 4411
 4412,
*Elset, elset=__PickedSurf8_S1, internal, instance=Pinion-1
 2490, 2501, 3548, 3550, 3558, 3560, 3565
*Elset, elset=__PickedSurf8_S4, internal, instance=Pinion-1
 3040, 3554, 3569, 3570, 3572, 3574, 3575, 3577, 3579, 3580, 3582, 3829, 4410
*Elset, elset=__PickedSurf8_S3, internal, instance=Pinion-1
 3041,
*Surface, type=ELEMENT, name=_PickedSurf8, internal
__PickedSurf8_S2, S2
__PickedSurf8_S1, S1
__PickedSurf8_S4, S4
__PickedSurf8_S3, S3
*Elset, elset=__PickedSurf10_S2, internal, instance=Gear-1
 2595, 2596, 4345, 4346, 4348, 4349, 4350, 4351, 4353, 4354, 4355, 4357, 4362, 4367, 4372, 4379
 4381, 4382, 4384, 4386, 4872, 4881, 4882, 4884, 6562, 6563, 6564
*Elset, elset=__PickedSurf10_S3, internal, instance=Gear-1
 3474, 4358, 4360, 4363, 4365, 4368, 4370, 4373, 4375, 4378, 4876, 4878, 4879, 4880, 4889, 7631
*Elset, elset=__PickedSurf10_S4, internal, instance=Gear-1
 3476, 4343, 4347, 4380, 4383, 4385, 4870, 6565
*Elset, elset=__PickedSurf10_S1, internal, instance=Gear-1
 4331, 4332, 4333, 4334, 4335, 4336, 4337, 4338, 4339, 4340, 4341, 4342, 4344, 4352, 4356, 4359
 4361, 4364, 4366, 4369, 4371, 4374, 4376, 4377, 4871, 4873, 4874, 4875, 4877, 6566, 6567, 6568
 6569,
*Surface, type=ELEMENT, name=_PickedSurf10, internal
__PickedSurf10_S2, S2
__PickedSurf10_S3, S3
__PickedSurf10_S4, S4
__PickedSurf10_S1, S1
** Constraint: Gear_coupling
*Coupling, constraint name=Gear_coupling, ref node=_PickedSet11, surface=_PickedSurf10
*Kinematic
2, 2
** Constraint: Pinion_coupling
*Coupling, constraint name=Pinion_coupling, ref node=_PickedSet9, surface=_PickedSurf8
*Kinematic
*End Assembly
** 
** MATERIALS
** 
*Material, name=plexiglass
*Elastic
3200., 0.4
** 
** INTERACTION PROPERTIES
** 
*Surface Interaction, name=IntProp-1
1.,
*Friction
0.,
*Surface Behavior, augmented Lagrange
** 
** BOUNDARY CONDITIONS
** 
** Name: Encastre_pinion Type: Symmetry/Antisymmetry/Encastre
*Boundary
_PickedSet14, ENCASTRE
** Name: y_disp_pinion Type: Displacement/Rotation
*Boundary
_PickedSet15, 2, 2
** Name: y_free_gear Type: Displacement/Rotation
*Boundary
_PickedSet16, 1, 1
_PickedSet16, 6, 6
** 
** INTERACTIONS
** 
** Interaction: cylinder_contact
*Contact Pair, interaction=IntProp-1, small sliding, type=SURFACE TO SURFACE
s_Surf_gear, m_Surf_pinion
** ----------------------------------------------------------------
** 
** STEP: load
** 
*Step, name=load, nlgeom=YES
*Static, stabilize, allsdtol=0.05, continue=YES
0.01, 1., 1e-05, 0.1
** 
** BOUNDARY CONDITIONS
** 
** Name: Displacement Type: Displacement/Rotation
*Boundary
_PickedSet17, 2, 2, -0.0353058
** 
** OUTPUT REQUESTS
** 
*Restart, write, frequency=0
** 
** FIELD OUTPUT: F-Output-1
** 
*Output, field
*Node Output
CF, RF, U
*Element Output, directions=YES
LE, PE, PEEQ, PEMAG, S
*Contact Output
CDISP, CDSTRESS, CFORCE, CSTATUS, CSTRESS
** 
** HISTORY OUTPUT: H-Output-1
** 
*Output, history, variable=PRESELECT
*End Step
