*Heading
** Job name: gear_179_rP_24,2_rG_44,28_D_0,03_res Model name: gear_179_rP_24,2_rG_44,28_D_0,03
** Generated by: Abaqus/CAE 2019
*Preprint, echo=NO, model=NO, history=NO, contact=NO
**
** PARTS
**
*Part, name=Gear
*Node
      1,    -2.862293,   2.09700847
      2,  -2.99770498,  0.101597898
      3,   2.99770498,  0.101597898
      4,     2.862293,   2.09700847
      5,   44.2753105,   44.2753105
      6,   42.2753105,   44.2753105
      7,  -42.2753105,   44.2753105
      8,  -44.2753105,   44.2753105
      9,  -2.86874104,   2.00198889
     10,   -2.8751893,   1.90696943
     11,  -2.88163757,   1.81194985
     12,   -2.8880856,   1.71693027
     13,  -2.89453387,   1.62191081
     14,  -2.90098214,   1.52689123
     15,  -2.90743017,   1.43187165
     16,  -2.91387844,   1.33685207
     17,  -2.92032671,   1.24183249
     18,  -2.92677474,   1.14681304
     19,  -2.93322301,   1.05179346
     20,  -2.93967128,  0.956773877
** ... 36846 like lines cut
*Element, type=CPS8
   1,     1,     9,   920,   286, 12395, 12396, 12397, 12398
   2,     9,    10,   921,   920, 12399, 12400, 12401, 12396
   3,    10,    11,   922,   921, 12402, 12403, 12404, 12400
   4,    11,    12,   923,   922, 12405, 12406, 12407, 12403
   5,    12,    13,   924,   923, 12408, 12409, 12410, 12406
   6,    13,    14,   925,   924, 12411, 12412, 12413, 12409
   7,    14,    15,   926,   925, 12414, 12415, 12416, 12412
   8,    15,    16,   927,   926, 12417, 12418, 12419, 12415
   9,    16,    17,   928,   927, 12420, 12421, 12422, 12418
  10,    17,    18,   929,   928, 12423, 12424, 12425, 12421
  11,    18,    19,   930,   929, 12426, 12427, 12428, 12424
  12,    19,    20,   931,   930, 12429, 12430, 12431, 12427
  13,    20,    21,   932,   931, 12432, 12433, 12434, 12430
  14,    21,    22,   933,   932, 12435, 12436, 12437, 12433
  15,    22,    23,   934,   933, 12438, 12439, 12440, 12436
  16,    23,    24,   935,   934, 12441, 12442, 12443, 12439
  17,    24,    25,   936,   935, 12444, 12445, 12446, 12442
  18,    25,    26,   937,   936, 12447, 12448, 12449, 12445
  19,    26,    27,   938,   937, 12450, 12451, 12452, 12448
  20,    27,    28,   939,   938, 12453, 12454, 12455, 12451
** ... 12059 like lines cut
*Nset, nset=gear_set, generate
     1,  36866,      1
*Elset, elset=gear_set, generate
     1,  12079,      1
*Nset, nset=gear_edge
     2,     3,    29,    30,    31,    32,    33,    34,    35,    36,    37,    38,    39,    40,    41,    42
    43,    44,    45,    46,    47,    48,    49,    50,    51,    52,    53,    54,    55,    56,    57,    58
    59,    60,    61,    62,    63,    64,    65,    66,    67,    68,    69,    70,    71,    72,    73,    74
    75,    76,    77,    78,    79,    80,    81,    82,    83,    84,    85,    86,    87,    88,    89,    90
    91,    92,    93,    94,    95,    96,    97,    98,    99,   100,   101,   102,   103,   104,   105,   106
   107,   108,   109,   110,   111,   112,   113,   114,   115,   116,   117,   118,   119,   120,   121,   122
   123,   124,   125,   126,   127,   128,   129,   130,   131,   132,   133,   134,   135,   136,   137,   138
   139,   140,   141,   142,   143,   144,   145,   146,   147, 12457, 12500, 12543, 12586, 12629, 12672, 12715
 12758, 12801, 12844, 12887, 12930, 12973, 13016, 13059, 13102, 13145, 13188, 13231, 13274, 13317, 13360, 13403
 13446, 13489, 13532, 13575, 13618, 13661, 13704, 13747, 13790, 13833, 13876, 13919, 13962, 14005, 14048, 14091
 14134, 14177, 14220, 14263, 14306, 14349, 14392, 14435, 14478, 14521, 14564, 14607, 14650, 14693, 14736, 14779
 14822, 14865, 14908, 14951, 14994, 15037, 15080, 15123, 15166, 15209, 15252, 15295, 15338, 15381, 15424, 15467
 15510, 15553, 15596, 15639, 15682, 15725, 15768, 15811, 15854, 15897, 15940, 15983, 16026, 16069, 16112, 16155
 16198, 16241, 16284, 16327, 16370, 16413, 16456, 16499, 16542, 16585, 16628, 16671, 16714, 16757, 16800, 16843
 16886, 16929, 16972, 17015, 17058, 17101, 17144, 17187, 17230, 17273, 17316, 17359, 17402, 17445, 17488, 17531
 17574,
*Elset, elset=gear_edge, generate
   21,  2520,    21
** Section: Section-1
*Solid Section, elset=gear_set, material=plexiglass
,
*End Part
**  
*Part, name=Pinion
*Node
      1,  -2.99231982, -0.185737759
      2,  -2.74498677,  -2.17038536
      3,   2.74498677,  -2.17038536
      4,   2.99231982, -0.185737759
      5,   22.1966877,  -24.1966877
      6,   24.1966877,  -24.1966877
      7,  -24.1966877,  -24.1966877
      8,  -22.1966877,  -24.1966877
      9,  -2.97995329, -0.284970134
     10,  -2.96758652,  -0.38420251
     11,  -2.95521998, -0.483434916
     12,  -2.94285321, -0.582667291
     13,  -2.93048668, -0.681899667
     14,  -2.91811991, -0.781132042
     15,  -2.90575337, -0.880364418
     16,   -2.8933866, -0.979596794
     17,  -2.88102007,  -1.07882917
     18,   -2.8686533,   -1.1780616
     19,  -2.85628676,  -1.27729392
     20,  -2.84391999,  -1.37652636
** ... 19884 like lines cut
*Element, type=CPS8
   1,     1,     9,   610,   284,  6701,  6702,  6703,  6704
   2,     9,    10,   611,   610,  6705,  6706,  6707,  6702
   3,    10,    11,   612,   611,  6708,  6709,  6710,  6706
   4,    11,    12,   613,   612,  6711,  6712,  6713,  6709
   5,    12,    13,   614,   613,  6714,  6715,  6716,  6712
   6,    13,    14,   615,   614,  6717,  6718,  6719,  6715
   7,    14,    15,   616,   615,  6720,  6721,  6722,  6718
   8,    15,    16,   617,   616,  6723,  6724,  6725,  6721
   9,    16,    17,   618,   617,  6726,  6727,  6728,  6724
  10,    17,    18,   619,   618,  6729,  6730,  6731,  6727
  11,    18,    19,   620,   619,  6732,  6733,  6734,  6730
  12,    19,    20,   621,   620,  6735,  6736,  6737,  6733
  13,    20,    21,   622,   621,  6738,  6739,  6740,  6736
  14,    21,    22,   623,   622,  6741,  6742,  6743,  6739
  15,    22,    23,   624,   623,  6744,  6745,  6746,  6742
  16,    23,    24,   625,   624,  6747,  6748,  6749,  6745
  17,    24,    25,   626,   625,  6750,  6751,  6752,  6748
  18,    25,    26,   627,   626,  6753,  6754,  6755,  6751
  19,    26,    27,   628,   627,  6756,  6757,  6758,  6754
  20,    27,     2,    28,   628,  6759,  6760,  6761,  6757
** ... 6485 like lines cut
*Nset, nset=pinion_set, generate
     1,  19904,      1
*Elset, elset=pinion_set, generate
    1,  6505,     1
*Nset, nset=pinion_edge
     1,     4,   166,   167,   168,   169,   170,   171,   172,   173,   174,   175,   176,   177,   178,   179
   180,   181,   182,   183,   184,   185,   186,   187,   188,   189,   190,   191,   192,   193,   194,   195
   196,   197,   198,   199,   200,   201,   202,   203,   204,   205,   206,   207,   208,   209,   210,   211
   212,   213,   214,   215,   216,   217,   218,   219,   220,   221,   222,   223,   224,   225,   226,   227
   228,   229,   230,   231,   232,   233,   234,   235,   236,   237,   238,   239,   240,   241,   242,   243
   244,   245,   246,   247,   248,   249,   250,   251,   252,   253,   254,   255,   256,   257,   258,   259
   260,   261,   262,   263,   264,   265,   266,   267,   268,   269,   270,   271,   272,   273,   274,   275
   276,   277,   278,   279,   280,   281,   282,   283,   284,  6704,  6764,  6805,  6846,  6887,  6928,  6969
  7010,  7051,  7092,  7133,  7174,  7215,  7256,  7297,  7338,  7379,  7420,  7461,  7502,  7543,  7584,  7625
  7666,  7707,  7748,  7789,  7830,  7871,  7912,  7953,  7994,  8035,  8076,  8117,  8158,  8199,  8240,  8281
  8322,  8363,  8404,  8445,  8486,  8527,  8568,  8609,  8650,  8691,  8732,  8773,  8814,  8855,  8896,  8937
  8978,  9019,  9060,  9101,  9142,  9183,  9224,  9265,  9306,  9347,  9388,  9429,  9470,  9511,  9552,  9593
  9634,  9675,  9716,  9757,  9798,  9839,  9880,  9921,  9962, 10003, 10044, 10085, 10126, 10167, 10208, 10249
 10290, 10331, 10372, 10413, 10454, 10495, 10536, 10577, 10618, 10659, 10700, 10741, 10782, 10823, 10864, 10905
 10946, 10987, 11028, 11069, 11110, 11151, 11192, 11233, 11274, 11315, 11356, 11397, 11438, 11479, 11520, 11561
 11602,
*Elset, elset=pinion_edge, generate
    1,  2381,    20
** Section: Section-1
*Solid Section, elset=pinion_set, material=plexiglass
,
*End Part
**  
**
** ASSEMBLY
**
*Assembly, name=Assembly
**  
*Instance, name=Gear-1, part=Gear
*End Instance
**  
*Instance, name=Pinion-1, part=Pinion
*End Instance
**  
*Node
      1,           0.,  -29.1966877,           0.
*Node
      2,           0.,   49.2753105,           0.
*Nset, nset=_PickedSet9, internal
 1,
*Nset, nset=_PickedSet11, internal
 2,
*Nset, nset=_PickedSet14, internal
 1,
*Nset, nset=_PickedSet15, internal, instance=Pinion-1
     5,     6,     7,     8,   316,   535,   567,   568,   569,   570,   571,   572,   573,   574,   575,   576
   577,   578,   579,   580,   581,   582,   583,   584,   585,   586,   587,   588,   589,   590,   591,   592
   593,   594,   595,   596,   597,   598,   599,   600,   601,   602,   603,   604,   605,   606,   607,   608
   609, 11775, 11777, 12937, 13167, 13843, 13968, 13973, 13975, 14175, 14179, 14180, 14370, 14374, 14376, 14404
 14424, 14427, 14443, 14455, 14458, 14467, 14468, 14471, 14527, 14531, 14601, 14604, 14651, 14704, 14752, 14793
 14833, 14834, 14865, 14867, 14914, 14917, 14938, 14947, 14963, 14966, 14976, 14985, 14986, 15001, 15002, 15869
 15871,
*Elset, elset=_PickedSet15, internal, instance=Pinion-1
 2435, 2436, 2978, 3058, 3440, 3473, 3474, 3475, 3541, 3542, 3543, 3597, 3598, 3599, 3610, 3617
 3618, 3624, 3629, 3630, 3633, 3634, 3636, 3653, 3654, 3675, 3676, 3689, 3703, 3716, 3728, 3739
 3740, 3748, 3749, 3765, 3766, 3772, 3777, 3782, 3783, 3786, 3789, 3790, 3801, 3802, 4143, 4144
*Nset, nset=_PickedSet16, internal
 2,
*Nset, nset=_PickedSet17, internal
 2,
*Elset, elset=_m_Surf_pinion_S4, internal, instance=Pinion-1, generate
    1,  2381,    20
*Surface, type=ELEMENT, name=m_Surf_pinion
_m_Surf_pinion_S4, S4
*Elset, elset=_s_Surf_gear_S2, internal, instance=Gear-1, generate
   21,  2520,    21
*Surface, type=ELEMENT, name=s_Surf_gear
_s_Surf_gear_S2, S2
*Elset, elset=__PickedSurf8_S3, internal, instance=Pinion-1
 2435, 3474, 3542, 3597, 3598, 3633, 3748, 3786, 3801
*Elset, elset=__PickedSurf8_S1, internal, instance=Pinion-1
 2436, 3440, 3473, 3475, 3541, 3543, 3599, 3617, 3618, 3624, 3629, 3634, 3653, 3654, 3675, 3689
 3728, 3749, 3765, 3783, 3802, 4143
*Elset, elset=__PickedSurf8_S2, internal, instance=Pinion-1
 2978, 3630, 3636, 3676, 3703, 3740, 3766, 3777, 3782, 3790, 4144
*Elset, elset=__PickedSurf8_S4, internal, instance=Pinion-1
 3058, 3610, 3716, 3739, 3772, 3789
*Surface, type=ELEMENT, name=_PickedSurf8, internal
__PickedSurf8_S3, S3
__PickedSurf8_S1, S1
__PickedSurf8_S2, S2
__PickedSurf8_S4, S4
*Elset, elset=__PickedSurf10_S4, internal, instance=Gear-1
 2592, 4395, 4442, 4941, 4949, 6971, 6973, 6975, 8139
*Elset, elset=__PickedSurf10_S3, internal, instance=Gear-1
 2593, 3617, 4418, 4420, 4423, 4425, 4428, 4430, 4432, 4435, 4437, 4445, 4447, 4450, 4452, 4945
 4954, 4955, 4956, 4957
*Elset, elset=__PickedSurf10_S1, internal, instance=Gear-1
 3602, 4392, 4393, 4394, 4416, 4419, 4421, 4424, 4426, 4431, 4433, 4436, 4438, 4443, 4446, 4448
 4451, 4944, 4946, 4950, 4951, 4952, 4953, 6969, 6977
*Elset, elset=__PickedSurf10_S2, internal, instance=Gear-1
 4396, 4397, 4398, 4399, 4400, 4401, 4402, 4403, 4404, 4405, 4406, 4407, 4408, 4409, 4410, 4411
 4412, 4413, 4414, 4415, 4417, 4422, 4427, 4429, 4434, 4439, 4441, 4444, 4449, 4947, 4948, 4958
 6970, 6972, 6974, 6976
*Surface, type=ELEMENT, name=_PickedSurf10, internal
__PickedSurf10_S4, S4
__PickedSurf10_S3, S3
__PickedSurf10_S2, S2
__PickedSurf10_S1, S1
** Constraint: Gear_coupling
*Coupling, constraint name=Gear_coupling, ref node=_PickedSet11, surface=_PickedSurf10
*Kinematic
2, 2
** Constraint: Pinion_coupling
*Coupling, constraint name=Pinion_coupling, ref node=_PickedSet9, surface=_PickedSurf8
*Kinematic
*End Assembly
** 
** MATERIALS
** 
*Material, name=plexiglass
*Elastic
3200., 0.4
** 
** INTERACTION PROPERTIES
** 
*Surface Interaction, name=IntProp-1
1.,
*Friction
0.,
*Surface Behavior, augmented Lagrange
** 
** BOUNDARY CONDITIONS
** 
** Name: Encastre_pinion Type: Symmetry/Antisymmetry/Encastre
*Boundary
_PickedSet14, ENCASTRE
** Name: y_disp_pinion Type: Displacement/Rotation
*Boundary
_PickedSet15, 2, 2
** Name: y_free_gear Type: Displacement/Rotation
*Boundary
_PickedSet16, 1, 1
_PickedSet16, 6, 6
** 
** INTERACTIONS
** 
** Interaction: cylinder_contact
*Contact Pair, interaction=IntProp-1, small sliding, type=SURFACE TO SURFACE
s_Surf_gear, m_Surf_pinion
** ----------------------------------------------------------------
** 
** STEP: load
** 
*Step, name=load, nlgeom=YES
*Static, stabilize, allsdtol=0.05, continue=YES
0.01, 1., 1e-05, 0.1
** 
** BOUNDARY CONDITIONS
** 
** Name: Displacement Type: Displacement/Rotation
*Boundary
_PickedSet17, 2, 2, -0.0306193
** 
** OUTPUT REQUESTS
** 
*Restart, write, frequency=0
** 
** FIELD OUTPUT: F-Output-1
** 
*Output, field
*Node Output
CF, RF, U
*Element Output, directions=YES
LE, PE, PEEQ, PEMAG, S
*Contact Output
CDISP, CDSTRESS, CFORCE, CSTATUS, CSTRESS
** 
** HISTORY OUTPUT: H-Output-1
** 
*Output, history, variable=PRESELECT
*End Step
